@<TRIPOS>MOLECULE
HEM
   73    80     1     0     1 
SMALL
USER_CHARGES
@<TRIPOS>ATOM
  1 FE      4.043915    1.888780   -0.000002 FE    1 HEM     0.2500 ****
  2 NA      4.326087    1.953409   -2.059760 NP    1 HEM    -0.1800 ****
  3 C1A     4.183407    3.074734   -2.851388 CC    1 HEM     0.0300 ****
  4 C2A     4.455779    2.728708   -4.190858 CB    1 HEM    -0.0200 ****
  5 CAA     4.398738    3.703076   -5.343009 CT    1 HEM    -0.1600 ****
  6 HP71    5.111122    4.510255   -5.172511 HC    1 HEM     0.1000 ****
  7 HP72    3.393274    4.116822   -5.420186 HC    1 HEM     0.1000 ****
  8 CBA     4.749519    3.007851   -6.671623 CT    1 HEM    -0.3000 ****
  9 HP73    4.039179    2.202759   -6.859626 HC    1 HEM     0.1000 ****
 10 HP74    5.757028    2.596190   -6.611950 HC    1 HEM     0.1000 ****
 11 CGA     4.680838    4.023983   -7.809378 C     1 HEM     0.3000 ****
 12 O1A     5.736685    4.654989   -8.082545 O2    1 HEM    -0.5000 ****
 13 O2A     3.573183    4.159495   -8.394473 O2    1 HEM    -0.5000 ****
 14 C3A     4.772546    1.354828   -4.205482 CB    1 HEM     0.0200 ****
 15 CMA     5.132021    0.561972   -5.439280 CT    1 HEM    -0.2650 ****
 16 HM81    6.022306    0.989856   -5.900157 HC    1 HEM     0.0750 ****
 17 HM82    5.329157   -0.473502   -5.161735 HC    1 HEM     0.0750 ****
 18 HM83    4.304459    0.596421   -6.147837 HC    1 HEM     0.0750 ****
 19 C4A     4.685401    0.897485   -2.874564 CC    1 HEM     0.0200 ****
 20 CHB     4.912155   -0.376256   -2.423935 CD    1 HEM    -0.1100 ****
 21 HDM     5.190570   -1.153735   -3.119932 HC    1 HEM     0.1500 ****
 22 C1B     4.827482   -0.820625   -1.130773 CC    1 HEM     0.0300 ****
 23 NB      4.489399   -0.018682   -0.059798 NO    1 HEM    -0.1800 ****
 24 C2B     5.060858   -2.131555   -0.666986 CB    1 HEM     0.0200 ****
 25 CMB     5.454209   -3.301037   -1.537438 CT    1 HEM    -0.2650 ****
 26 HM11    6.397818   -3.081624   -2.036999 HC    1 HEM     0.0750 ****
 27 HM12    5.569184   -4.191818   -0.919870 HC    1 HEM     0.0750 ****
 28 HM13    4.679972   -3.475065   -2.284681 HC    1 HEM     0.0750 ****
 29 C3B     4.856561   -2.117776    0.728067 CB    1 HEM    -0.0500 ****
 30 CAB     4.993512   -3.300429    1.656870 CY    1 HEM    -0.1300 ****
 31 HV2     5.271630   -4.266890    1.263164 HC    1 HEM     0.1500 ****
 32 CBB     4.771640   -3.151927    2.959798 CX    1 HEM    -0.3000 ****
 33 HVC2    4.493521   -2.185468    3.353506 HC    1 HEM     0.1000 ****
 34 HVT2    4.869593   -3.997798    3.624108 HC    1 HEM     0.1000 ****
 35 C4B     4.503723   -0.798788    1.080030 CC    1 HEM     0.0200 ****
 36 CHC     4.215339   -0.329257    2.334332 CD    1 HEM    -0.1100 ****
 37 HAM     4.246371   -0.998170    3.181677 HC    1 HEM     0.1500 ****
 38 C1C     3.867601    0.930782    2.744552 CC    1 HEM     0.0300 ****
 39 NC      3.742438    2.011620    1.895714 NP    1 HEM    -0.1800 ****
 40 C2C     3.582622    1.345984    4.061554 CB    1 HEM     0.0200 ****
 41 CMC     3.612304    0.451014    5.277387 CT    1 HEM    -0.2650 ****
 42 HM31    4.612208    0.034199    5.398043 HC    1 HEM     0.0750 ****
 43 HM32    3.351799    1.031135    6.162653 HC    1 HEM     0.0750 ****
 44 HM33    2.894363   -0.359249    5.150365 HC    1 HEM     0.0750 ****
 45 C3C     3.276118    2.721024    4.003088 CB    1 HEM    -0.0500 ****
 46 CAC     2.906186    3.598514    5.174950 CY    1 HEM    -0.1200 ****
 47 HV4     2.858725    3.179774    6.169337 HC    1 HEM     0.1500 ****
 48 CBC     2.638797    4.887074    4.982554 CX    1 HEM    -0.3000 ****
 49 HVC4    2.686256    5.305816    3.988169 HC    1 HEM     0.1000 ****
 50 HVT4    2.374211    5.514683    5.820708 HC    1 HEM     0.1000 ****
 51 C4C     3.381870    3.109871    2.651898 CC    1 HEM     0.0200 ****
 52 CHD     3.169912    4.360752    2.134915 CD    1 HEM    -0.1100 ****
 53 HBM     2.889487    5.174353    2.787461 HC    1 HEM     0.1500 ****
 54 C1D     3.254580    4.805122    0.841754 CC    1 HEM     0.0300 ****
 55 ND      3.592662    4.003180   -0.229223 NO    1 HEM    -0.1800 ****
 56 C2D     3.021201    6.116052    0.377968 CB    1 HEM     0.0200 ****
 57 CMD     2.627853    7.285533    1.248422 CT    1 HEM    -0.2650 ****
 58 HM51    3.402094    7.459563    1.995659 HC    1 HEM     0.0750 ****
 59 HM52    2.512872    8.176313    0.630854 HC    1 HEM     0.0750 ****
 60 HM53    1.684248    7.066118    1.747989 HC    1 HEM     0.0750 ****
 61 C3D     3.225488    6.102272   -1.017086 CB    1 HEM    -0.0200 ****
 62 C4D     3.578323    4.783285   -1.369052 CC    1 HEM     0.0200 ****
 63 CHA     3.866702    4.313753   -2.623356 CD    1 HEM    -0.1100 ****
 64 HGM     3.835666    4.982667   -3.470700 HC    1 HEM     0.1500 ****
 65 CAD     3.075707    7.314829   -1.904425 CT    1 HEM    -0.1600 ****
 66 HP61    3.774385    8.088047   -1.584921 HC    1 HEM     0.1000 ****
 67 HP62    2.056537    7.694609   -1.832590 HC    1 HEM     0.1000 ****
 68 CBD     3.368413    6.962329   -3.374686 CT    1 HEM    -0.3000 ****
 69 HP63    2.670712    6.195293   -3.710797 HC    1 HEM     0.1000 ****
 70 HP64    4.388561    6.588730   -3.463128 HC    1 HEM     0.1000 ****
 71 CGD     3.206385    8.214111   -4.239376 C     1 HEM     0.3000 ****
 72 O1D     4.227142    8.933076   -4.408916 O2    1 HEM    -0.5000 ****
 73 O2D     2.063641    8.437574   -4.720834 O2    1 HEM    -0.5000 ****
@<TRIPOS>BOND
    1     1     2 1
    2     1    23 1
    3     1    39 1
    4     1    55 1
    5     2     3 1
    6     2    19 1
    7     3     4 1
    8     3    63 1
    9     4     5 1
   10     4    14 1
   11     5     6 1
   12     5     7 1
   13     5     8 1
   14     8     9 1
   15     8    10 1
   16     8    11 1
   17    11    12 1
   18    11    13 1
   19    14    15 1
   20    14    19 1
   21    15    16 1
   22    15    17 1
   23    15    18 1
   24    19    20 1
   25    20    21 1
   26    20    22 1
   27    22    23 1
   28    22    24 1
   29    23    35 1
   30    24    25 1
   31    24    29 1
   32    25    26 1
   33    25    27 1
   34    25    28 1
   35    29    30 1
   36    29    35 1
   37    30    31 1
   38    30    32 1
   39    32    33 1
   40    32    34 1
   41    35    36 1
   42    36    37 1
   43    36    38 1
   44    38    39 1
   45    38    40 1
   46    39    51 1
   47    40    41 1
   48    40    45 1
   49    41    42 1
   50    41    43 1
   51    41    44 1
   52    45    46 1
   53    45    51 1
   54    46    47 1
   55    46    48 1
   56    48    49 1
   57    48    50 1
   58    51    52 1
   59    52    53 1
   60    52    54 1
   61    54    55 1
   62    54    56 1
   63    55    62 1
   64    56    57 1
   65    56    61 1
   66    57    58 1
   67    57    59 1
   68    57    60 1
   69    61    62 1
   70    61    65 1
   71    62    63 1
   72    63    64 1
   73    65    66 1
   74    65    67 1
   75    65    68 1
   76    68    69 1
   77    68    70 1
   78    68    71 1
   79    71    72 1
   80    71    73 1
@<TRIPOS>SUBSTRUCTURE
      1  HEM              1 ****               0 ****  **** 
